%chk=C:\Users\lipel\Google Drive\Laboratório\Quím-Mat\Projetos\Doutorado\Resultados\Teste_Pipeline\4 - Blocos de construção\Núcleos\R\CH3.chk
# opt pbepbe/6-311g/auto

Title Card Required

0 1
 Q                  0.00000000    0.00000000    0.00000000
 N                  0.45000000    0.00000000    0.00000000
 X                  1.17508507    0.99023162   -0.00000000
 H                  1.09769069   -0.90200463    0.00000000

